* SPICE3 file created from user_analog_project_wrapper.ext - technology: sky130A

.subckt md__cdec VSUBS m3_n1050_n1300# c1_n950_n1200#
X0 c1_n950_n1200# m3_n1050_n1300# sky130_fd_pr__cap_mim_m3_1 l=1.2e+07u w=9e+06u
.ends

.subckt module_decap VSUBS m3_0_0# m3_0_380#
Xmd__cdec_0 VSUBS m3_0_380# m3_0_0# md__cdec
Xmd__cdec_2 VSUBS m3_0_380# m3_0_0# md__cdec
Xmd__cdec_1 VSUBS m3_0_380# m3_0_0# md__cdec
.ends

.subckt inv_MP VSUBS
X0 a_40_n64# a_n40_n161# a_n98_n64# w_n236_n284# sky130_fd_pr__pfet_01v8_lvt ad=2.9e+11p pd=2.58e+06u as=2.9e+11p ps=2.58e+06u w=1e+06u l=400000u
.ends

.subckt inv_MN VSUBS w_n226_n269# a_n98_n131# a_n40_n157# a_40_n131#
X0 a_40_n131# a_n40_n157# a_n98_n131# VSUBS sky130_fd_pr__nfet_01v8_lvt ad=2.9e+11p pd=2.58e+06u as=2.9e+11p ps=2.58e+06u w=1e+06u l=400000u
.ends

.subckt inverter VSUBS m2_0_899# m2_0_214# m1_0_545# m2_289_297#
Xinv_MP_0 VSUBS inv_MP
Xinv_MN_0 VSUBS m2_0_214# m2_0_214# m1_0_545# m2_289_297# inv_MN
.ends

.subckt bbp__M5 VSUBS a_n108_n100# a_n50_n126# a_50_n100# w_n144_n162#
X0 a_50_n100# a_n50_n126# a_n108_n100# w_n144_n162# sky130_fd_pr__pfet_01v8_lvt ad=2.9e+11p pd=2.58e+06u as=2.9e+11p ps=2.58e+06u w=1e+06u l=500000u
.ends

.subckt bbp__M6 VSUBS a_n108_n100# a_n50_n126# a_50_n100# w_n144_n162#
X0 a_50_n100# a_n50_n126# a_n108_n100# w_n144_n162# sky130_fd_pr__pfet_01v8_lvt ad=2.9e+11p pd=2.58e+06u as=2.9e+11p ps=2.58e+06u w=1e+06u l=500000u
.ends

.subckt bbp__M4 VSUBS a_n108_n100# a_n50_n126# a_50_n100# w_n144_n162#
X0 a_50_n100# a_n50_n126# a_n108_n100# w_n144_n162# sky130_fd_pr__pfet_01v8_lvt ad=2.9e+11p pd=2.58e+06u as=2.9e+11p ps=2.58e+06u w=1e+06u l=500000u
.ends

.subckt bbp__DUM VSUBS a_n108_n100# a_n50_n126# a_50_n100# w_n144_n162#
X0 a_50_n100# a_n50_n126# a_n108_n100# w_n144_n162# sky130_fd_pr__pfet_01v8_lvt ad=2.9e+11p pd=2.58e+06u as=2.9e+11p ps=2.58e+06u w=1e+06u l=500000u
.ends

.subckt bb_pmirr VSUBS m2_133_674# m2_219_0# w_46_70# m3_2424_881#
Xbbp__M5_2 VSUBS m2_219_0# a_673_660# w_46_70# w_46_70# bbp__M5
Xbbp__M5_3 VSUBS w_46_70# a_831_660# m2_219_0# w_46_70# bbp__M5
Xbbp__M5_4 VSUBS m2_219_0# a_673_660# w_46_70# w_46_70# bbp__M5
Xbbp__M5_5 VSUBS w_46_70# a_831_660# m2_219_0# w_46_70# bbp__M5
Xbbp__M5_6 VSUBS w_46_70# a_1779_660# m2_219_0# w_46_70# bbp__M5
Xbbp__M5_7 VSUBS m2_219_0# a_1621_660# w_46_70# w_46_70# bbp__M5
Xbbp__M5_8 VSUBS w_46_70# a_1779_660# m2_219_0# w_46_70# bbp__M5
Xbbp__M6_0 VSUBS m3_2424_881# a_1147_660# w_46_70# w_46_70# bbp__M6
Xbbp__M6_1 VSUBS w_46_70# a_1305_660# m3_2424_881# w_46_70# bbp__M6
Xbbp__M4_0 VSUBS m2_133_674# a_1147_660# w_46_70# w_46_70# bbp__M4
Xbbp__M4_1 VSUBS w_46_70# a_1305_660# m2_133_674# w_46_70# bbp__M4
Xbbp__M4_2 VSUBS m2_133_674# a_673_660# w_46_70# w_46_70# bbp__M4
Xbbp__M4_3 VSUBS w_46_70# a_831_660# m2_133_674# w_46_70# bbp__M4
Xbbp__M4_4 VSUBS m2_133_674# a_1621_660# w_46_70# w_46_70# bbp__M4
Xbbp__M4_5 VSUBS w_46_70# a_1305_660# m2_133_674# w_46_70# bbp__M4
Xbbp__M4_6 VSUBS w_46_70# a_1779_660# m2_133_674# w_46_70# bbp__M4
Xbbp__DUM_0 VSUBS m2_219_0# a_2095_660# m2_219_0# w_46_70# bbp__DUM
Xbbp__M4_7 VSUBS m2_133_674# a_1147_660# w_46_70# w_46_70# bbp__M4
Xbbp__DUM_1 VSUBS m2_219_0# a_357_660# m2_219_0# w_46_70# bbp__DUM
Xbbp__DUM_2 VSUBS m2_219_0# a_357_660# m2_219_0# w_46_70# bbp__DUM
Xbbp__DUM_3 VSUBS m2_219_0# a_2095_660# m2_219_0# w_46_70# bbp__DUM
Xbbp__DUM_4 VSUBS m2_219_0# a_357_660# m2_219_0# w_46_70# bbp__DUM
Xbbp__DUM_5 VSUBS m2_219_0# a_2095_660# m2_219_0# w_46_70# bbp__DUM
Xbbp__M5_0 VSUBS m2_219_0# a_1621_660# w_46_70# w_46_70# bbp__M5
Xbbp__M5_1 VSUBS w_46_70# a_1779_660# m2_219_0# w_46_70# bbp__M5
.ends

.subckt bbn__M2 VSUBS a_n108_n100# a_n50_n126# a_50_n100#
X0 a_50_n100# a_n50_n126# a_n108_n100# VSUBS sky130_fd_pr__nfet_01v8_lvt ad=2.9e+11p pd=2.58e+06u as=2.9e+11p ps=2.58e+06u w=1e+06u l=500000u
.ends

.subckt bbn__M3 VSUBS a_n108_n100# a_n50_n126# a_50_n100#
X0 a_50_n100# a_n50_n126# a_n108_n100# VSUBS sky130_fd_pr__nfet_01v8_lvt ad=2.9e+11p pd=2.58e+06u as=2.9e+11p ps=2.58e+06u w=1e+06u l=500000u
.ends

.subckt bbn__M1 VSUBS a_n108_n100# a_n50_n126# a_50_n100#
X0 a_50_n100# a_n50_n126# a_n108_n100# VSUBS sky130_fd_pr__nfet_01v8_lvt ad=2.9e+11p pd=2.58e+06u as=2.9e+11p ps=2.58e+06u w=1e+06u l=500000u
.ends

.subckt bb__nmirr VSUBS m2_254_316# m1_327_628# m2_134_0# m3_1312_1446# m2_96_3050#
Xbbn__M2_30 VSUBS m2_254_316# m1_327_628# m2_96_3050# bbn__M2
Xbbn__M3_0 VSUBS m2_134_0# m1_327_628# m3_1312_1446# bbn__M3
Xbbn__M2_31 VSUBS m2_254_316# m1_327_628# m2_96_3050# bbn__M2
Xbbn__M2_20 VSUBS m2_254_316# m1_327_628# m2_96_3050# bbn__M2
Xbbn__M3_1 VSUBS m2_134_0# m1_327_628# m3_1312_1446# bbn__M3
Xbbn__M2_21 VSUBS m2_254_316# m1_327_628# m2_96_3050# bbn__M2
Xbbn__M2_10 VSUBS m2_254_316# m1_327_628# m2_96_3050# bbn__M2
Xbbn__M2_22 VSUBS m2_254_316# m1_327_628# m2_96_3050# bbn__M2
Xbbn__M2_11 VSUBS m2_254_316# m1_327_628# m2_96_3050# bbn__M2
Xbbn__M2_23 VSUBS m2_254_316# m1_327_628# m2_96_3050# bbn__M2
Xbbn__M1_0 VSUBS m2_134_0# m1_327_628# m1_327_628# bbn__M1
Xbbn__M2_12 VSUBS m2_254_316# m1_327_628# m2_96_3050# bbn__M2
Xbbn__M1_1 VSUBS m2_134_0# m1_327_628# m1_327_628# bbn__M1
Xbbn__M2_24 VSUBS m2_254_316# m1_327_628# m2_96_3050# bbn__M2
Xbbn__M2_13 VSUBS m2_254_316# m1_327_628# m2_96_3050# bbn__M2
Xbbn__M2_25 VSUBS m2_254_316# m1_327_628# m2_96_3050# bbn__M2
Xbbn__M1_2 VSUBS m2_134_0# m1_327_628# m1_327_628# bbn__M1
Xbbn__M2_14 VSUBS m2_254_316# m1_327_628# m2_96_3050# bbn__M2
Xbbn__M1_3 VSUBS m2_134_0# m1_327_628# m1_327_628# bbn__M1
Xbbn__M2_26 VSUBS m2_254_316# m1_327_628# m2_96_3050# bbn__M2
Xbbn__M2_15 VSUBS m2_254_316# m1_327_628# m2_96_3050# bbn__M2
Xbbn__M2_27 VSUBS m2_254_316# m1_327_628# m2_96_3050# bbn__M2
Xbbn__M2_16 VSUBS m2_254_316# m1_327_628# m2_96_3050# bbn__M2
Xbbn__M1_4 VSUBS m2_134_0# m1_327_628# m1_327_628# bbn__M1
Xbbn__M1_5 VSUBS m2_134_0# m1_327_628# m1_327_628# bbn__M1
Xbbn__M2_28 VSUBS m2_254_316# m1_327_628# m2_96_3050# bbn__M2
Xbbn__M2_17 VSUBS m2_254_316# m1_327_628# m2_96_3050# bbn__M2
Xbbn__M1_6 VSUBS m2_134_0# m1_327_628# m1_327_628# bbn__M1
Xbbn__M2_29 VSUBS m2_254_316# m1_327_628# m2_96_3050# bbn__M2
Xbbn__M2_18 VSUBS m2_254_316# m1_327_628# m2_96_3050# bbn__M2
Xbbn__M1_7 VSUBS m2_134_0# m1_327_628# m1_327_628# bbn__M1
Xbbn__M2_19 VSUBS m2_254_316# m1_327_628# m2_96_3050# bbn__M2
Xbbn__M2_0 VSUBS m2_254_316# m1_327_628# m2_96_3050# bbn__M2
Xbbn__M2_1 VSUBS m2_254_316# m1_327_628# m2_96_3050# bbn__M2
Xbbn__M2_2 VSUBS m2_254_316# m1_327_628# m2_96_3050# bbn__M2
Xbbn__M2_3 VSUBS m2_254_316# m1_327_628# m2_96_3050# bbn__M2
Xbbn__M2_4 VSUBS m2_254_316# m1_327_628# m2_96_3050# bbn__M2
Xbbn__M2_5 VSUBS m2_254_316# m1_327_628# m2_96_3050# bbn__M2
Xbbn__M2_6 VSUBS m2_254_316# m1_327_628# m2_96_3050# bbn__M2
Xbbn__M2_7 VSUBS m2_254_316# m1_327_628# m2_96_3050# bbn__M2
Xbbn__M2_8 VSUBS m2_254_316# m1_327_628# m2_96_3050# bbn__M2
Xbbn__M2_9 VSUBS m2_254_316# m1_327_628# m2_96_3050# bbn__M2
.ends

.subckt bb__M10 VSUBS a_100_n86# w_n194_n148# a_n158_n86# a_n100_n112#
X0 a_100_n86# a_n100_n112# a_n158_n86# w_n194_n148# sky130_fd_pr__pfet_01v8_lvt ad=1.45e+11p pd=1.58e+06u as=1.45e+11p ps=1.58e+06u w=500000u l=1e+06u
.ends

.subckt bb__M9 VSUBS a_100_n86# w_n194_n148# a_n158_n86# a_n100_n112#
X0 a_100_n86# a_n100_n112# a_n158_n86# w_n194_n148# sky130_fd_pr__pfet_01v8_lvt ad=1.45e+11p pd=1.58e+06u as=1.45e+11p ps=1.58e+06u w=500000u l=1e+06u
.ends

.subckt bb__R1 VSUBS a_n194_850# a_n194_n1282# a_124_850# a_124_n1282#
X0 a_n194_n1282# a_n194_850# VSUBS sky130_fd_pr__res_xhigh_po w=350000u l=8.5e+06u
X1 a_124_n1282# a_124_850# VSUBS sky130_fd_pr__res_xhigh_po w=350000u l=8.5e+06u
.ends

.subckt bb__M7 VSUBS a_n88_n131# a_30_n131# a_n33_91#
X0 a_30_n131# a_n33_91# a_n88_n131# VSUBS sky130_fd_pr__nfet_01v8_lvt ad=2.9e+11p pd=2.58e+06u as=2.9e+11p ps=2.58e+06u w=1e+06u l=300000u
.ends

.subckt bb__R2 VSUBS a_n194_850# a_n194_n1282# a_124_850# a_124_n1282#
X0 a_n194_n1282# a_n194_850# VSUBS sky130_fd_pr__res_xhigh_po w=350000u l=8.5e+06u
X1 a_124_n1282# a_124_850# VSUBS sky130_fd_pr__res_xhigh_po w=350000u l=8.5e+06u
.ends

.subckt bb__M8 VSUBS a_n88_n131# a_30_n131# a_n33_91#
X0 a_30_n131# a_n33_91# a_n88_n131# VSUBS sky130_fd_pr__nfet_01v8_lvt ad=2.9e+11p pd=2.58e+06u as=2.9e+11p ps=2.58e+06u w=1e+06u l=300000u
.ends

.subckt bias_basis_current VSUBS m3_0_0# m3_0_380# m3_4204_5508# m3_4273_3065#
Xbb_pmirr_0 VSUBS m1_711_3747# m2_1682_4603# m3_0_0# m3_4204_5508# bb_pmirr
Xbb__nmirr_0 VSUBS m2_3967_1509# m1_711_3747# m3_0_380# m3_4273_3065# m2_1682_4603#
+ bb__nmirr
Xbb__M10_0 VSUBS m2_490_5152# m3_0_0# m2_97_3643# m2_490_5152# bb__M10
Xbb__M9_0 VSUBS m1_807_5168# m3_0_0# m2_490_5152# m1_807_5168# bb__M9
Xbb__R1_0 VSUBS m2_3967_1509# m1_1634_859# m3_0_380# m1_1634_859# bb__R1
Xbb__M7_0 VSUBS m3_0_380# m1_807_5168# m1_807_5168# bb__M7
Xbb__R2_0 VSUBS m1_322_845# m3_0_0# m1_322_845# m2_97_3643# bb__R2
Xbb__M8_0 VSUBS m1_711_3747# m3_0_0# m1_807_5168# bb__M8
.ends

.subckt bg__M2 VSUBS a_n50_n112# a_50_n86# w_n144_n148# a_n108_n86#
X0 a_50_n86# a_n50_n112# a_n108_n86# w_n144_n148# sky130_fd_pr__pfet_01v8 ad=1.45e+11p pd=1.58e+06u as=1.45e+11p ps=1.58e+06u w=500000u l=500000u
.ends

.subckt bgr_unit VSUBS a_n69_1800# a_n69_n2232#
X0 a_n69_n2232# a_n69_1800# VSUBS sky130_fd_pr__res_xhigh_po w=690000u l=1.8e+07u
.ends

.subckt bg__res VSUBS m1_5976_4850# m1_912_169# m1_3856_383# m1_490_169# m1_6398_4850#
+ bgr_unit_1/a_n69_1800# bgr_unit_0/a_n69_1800# m1_3866_4850#
Xbgr_unit_10 VSUBS m1_2600_4850# m1_3022_n43# bgr_unit
Xbgr_unit_11 VSUBS m1_2600_4850# m1_1334_n43# bgr_unit
Xbgr_unit_12 VSUBS m1_2178_4850# m1_1756_169# bgr_unit
Xbgr_unit_13 VSUBS m1_490_4850# m1_1756_169# bgr_unit
Xbgr_unit_14 VSUBS m1_912_4850# m1_1334_n43# bgr_unit
Xbgr_unit_16 VSUBS m1_490_4850# m1_490_169# bgr_unit
Xbgr_unit_15 VSUBS m1_912_4850# m1_912_169# bgr_unit
Xbgr_unit_0 VSUBS bgr_unit_0/a_n69_1800# bgr_unit_0/a_n69_n2232# bgr_unit
Xbgr_unit_1 VSUBS bgr_unit_1/a_n69_1800# bgr_unit_1/a_n69_n2232# bgr_unit
Xbgr_unit_2 VSUBS m1_6398_4850# m1_5132_n43# bgr_unit
Xbgr_unit_3 VSUBS m1_5976_4850# m1_5554_169# bgr_unit
Xbgr_unit_4 VSUBS m1_4288_4850# m1_5554_169# bgr_unit
Xbgr_unit_5 VSUBS m1_4710_4850# m1_5132_n43# bgr_unit
Xbgr_unit_6 VSUBS m1_4710_4850# m1_3022_n43# bgr_unit
Xbgr_unit_7 VSUBS m1_4288_4850# m1_3444_169# bgr_unit
Xbgr_unit_9 VSUBS m1_2178_4850# m1_3444_169# bgr_unit
Xbgr_unit_8 VSUBS m1_3866_4850# m1_3856_383# bgr_unit
.ends

.subckt bg__M1 VSUBS a_n50_n112# a_50_n86# w_n144_n148# a_n108_n86#
X0 a_50_n86# a_n50_n112# a_n108_n86# w_n144_n148# sky130_fd_pr__pfet_01v8 ad=1.45e+11p pd=1.58e+06u as=1.45e+11p ps=1.58e+06u w=500000u l=500000u
.ends

.subckt bgpg__pnp VSUBS a_330_330# w_0_0# w_153_153#
X0 a_330_330# w_153_153# VSUBS sky130_fd_pr__pnp_05v0 area=4.624e+11p
.ends

.subckt bg__pnp_group VSUBS m1_1644_1644# m1_314_314# m1_900_900# m1_42_42#
Xbgpg__pnp_0 VSUBS m1_900_900# m1_314_314# m1_314_314# bgpg__pnp
Xbgpg__pnp_1 VSUBS m1_900_900# m1_314_314# m1_314_314# bgpg__pnp
Xbgpg__pnp_2 VSUBS m1_900_900# m1_314_314# m1_314_314# bgpg__pnp
Xbgpg__pnp_3 VSUBS m1_900_900# m1_314_314# m1_314_314# bgpg__pnp
Xbgpg__pnp_4 VSUBS m1_900_900# m1_314_314# m1_314_314# bgpg__pnp
Xbgpg__pnp_5 VSUBS m1_900_900# m1_314_314# m1_314_314# bgpg__pnp
Xbgpg__pnp_6 VSUBS m1_1644_1644# m1_314_314# m1_314_314# bgpg__pnp
Xbgpg__pnp_7 VSUBS m1_900_900# m1_314_314# m1_314_314# bgpg__pnp
Xbgpg__pnp_8 VSUBS m1_900_900# m1_314_314# m1_314_314# bgpg__pnp
.ends

.subckt bga__M2 VSUBS w_n894_n198# a_n800_n162# a_n858_n136# a_800_n136#
X0 a_800_n136# a_n800_n162# a_n858_n136# w_n894_n198# sky130_fd_pr__pfet_01v8_lvt ad=2.9e+11p pd=2.58e+06u as=2.9e+11p ps=2.58e+06u w=1e+06u l=8e+06u
.ends

.subckt bga__DUM3 VSUBS w_n884_n157# a_n858_n131# a_n800_n157# a_800_n131#
X0 a_800_n131# a_n800_n157# a_n858_n131# VSUBS sky130_fd_pr__nfet_01v8_lvt ad=2.9e+11p pd=2.58e+06u as=2.9e+11p ps=2.58e+06u w=1e+06u l=8e+06u
.ends

.subckt bga__DUM1 VSUBS w_n194_n298# a_n100_n262# a_n158_n236# a_100_n236#
X0 a_100_n236# a_n100_n262# a_n158_n236# w_n194_n298# sky130_fd_pr__pfet_01v8_lvt ad=5.8e+11p pd=4.58e+06u as=5.8e+11p ps=4.58e+06u w=2e+06u l=1e+06u
.ends

.subckt bga__M5 VSUBS w_n194_n298# a_n100_n262# a_n158_n236# a_100_n236#
X0 a_100_n236# a_n100_n262# a_n158_n236# w_n194_n298# sky130_fd_pr__pfet_01v8_lvt ad=5.8e+11p pd=4.58e+06u as=5.8e+11p ps=4.58e+06u w=2e+06u l=1e+06u
.ends

.subckt bga__M3 VSUBS w_n884_n157# a_n858_n131# a_n800_n157# a_800_n131#
X0 a_800_n131# a_n800_n157# a_n858_n131# VSUBS sky130_fd_pr__nfet_01v8_lvt ad=2.9e+11p pd=2.58e+06u as=2.9e+11p ps=2.58e+06u w=1e+06u l=8e+06u
.ends

.subckt bga__M1 VSUBS w_n894_n198# a_n800_n162# a_n858_n136# a_800_n136#
X0 a_800_n136# a_n800_n162# a_n858_n136# w_n894_n198# sky130_fd_pr__pfet_01v8_lvt ad=2.9e+11p pd=2.58e+06u as=2.9e+11p ps=2.58e+06u w=1e+06u l=8e+06u
.ends

.subckt bga__DUM2 VSUBS w_n894_n198# a_n800_n162# a_n858_n136# a_800_n136#
X0 a_800_n136# a_n800_n162# a_n858_n136# w_n894_n198# sky130_fd_pr__pfet_01v8_lvt ad=2.9e+11p pd=2.58e+06u as=2.9e+11p ps=2.58e+06u w=1e+06u l=8e+06u
.ends

.subckt bga__M6 VSUBS w_n194_n298# a_n100_n262# a_n158_n236# a_100_n236#
X0 a_100_n236# a_n100_n262# a_n158_n236# w_n194_n298# sky130_fd_pr__pfet_01v8_lvt ad=5.8e+11p pd=4.58e+06u as=5.8e+11p ps=4.58e+06u w=2e+06u l=1e+06u
.ends

.subckt bga__M4 VSUBS w_n884_n157# a_n858_n131# a_n800_n157# a_800_n131#
X0 a_800_n131# a_n800_n157# a_n858_n131# VSUBS sky130_fd_pr__nfet_01v8_lvt ad=2.9e+11p pd=2.58e+06u as=2.9e+11p ps=2.58e+06u w=1e+06u l=8e+06u
.ends

.subckt bg__amplifier VSUBS m3_0_380# m3_0_0# m3_6771_2313# m3_6341_2931# m2_0_5342#
+ m3_5757_2931#
Xbga__M2_0 VSUBS m3_0_0# m3_6341_2931# m1_5227_2697# m3_6771_2313# bga__M2
Xbga__M2_1 VSUBS m3_0_0# m3_6341_2931# m1_5227_2697# m3_6771_2313# bga__M2
Xbga__M2_2 VSUBS m3_0_0# m3_6341_2931# m3_6771_2313# m1_5227_2697# bga__M2
Xbga__M2_3 VSUBS m3_0_0# m3_6341_2931# m3_6771_2313# m1_5227_2697# bga__M2
Xbga__DUM3_0 VSUBS bga__M4_1/w_n884_n157# m2_4069_1802# m3_0_380# m3_0_380# bga__DUM3
Xbga__DUM3_1 VSUBS bga__M4_0/w_n884_n157# m3_6771_2313# m3_0_380# m3_0_380# bga__DUM3
Xbga__DUM3_2 VSUBS bga__M4_1/w_n884_n157# m3_0_380# m3_0_380# m3_6771_2313# bga__DUM3
Xbga__DUM3_3 VSUBS bga__M4_0/w_n884_n157# m3_0_380# m3_0_380# m2_4069_1802# bga__DUM3
Xbga__DUM1_0 VSUBS m3_0_0# m3_0_0# m3_0_0# m3_0_0# bga__DUM1
Xbga__DUM1_1 VSUBS m3_0_0# m3_0_0# m3_0_0# m3_0_0# bga__DUM1
Xbga__M5_0 VSUBS m3_0_0# m2_0_5342# m1_5227_2697# m3_0_0# bga__M5
Xbga__M5_1 VSUBS m3_0_0# m2_0_5342# m3_0_0# m1_5227_2697# bga__M5
Xbga__M3_0 VSUBS bga__M4_1/w_n884_n157# m3_0_380# m2_4069_1802# m2_4069_1802# bga__M3
Xbga__M3_1 VSUBS bga__M4_0/w_n884_n157# m2_4069_1802# m2_4069_1802# m3_0_380# bga__M3
Xbga__M1_0 VSUBS m3_0_0# m3_5757_2931# m1_5227_2697# m2_4069_1802# bga__M1
Xbga__M1_1 VSUBS m3_0_0# m3_5757_2931# m1_5227_2697# m2_4069_1802# bga__M1
Xbga__M1_2 VSUBS m3_0_0# m3_5757_2931# m2_4069_1802# m1_5227_2697# bga__M1
Xbga__M1_3 VSUBS m3_0_0# m3_5757_2931# m2_4069_1802# m1_5227_2697# bga__M1
Xbga__DUM2_0 VSUBS m3_0_0# m3_0_0# m3_0_0# m2_4069_1802# bga__DUM2
Xbga__DUM2_1 VSUBS m3_0_0# m3_0_0# m3_0_0# m2_4069_1802# bga__DUM2
Xbga__DUM2_2 VSUBS m3_0_0# m3_0_0# m3_0_0# m3_6771_2313# bga__DUM2
Xbga__DUM2_3 VSUBS m3_0_0# m3_0_0# m2_4069_1802# m3_0_0# bga__DUM2
Xbga__DUM2_4 VSUBS m3_0_0# m3_0_0# m3_6771_2313# m3_0_0# bga__DUM2
Xbga__DUM2_5 VSUBS m3_0_0# m3_0_0# m3_6771_2313# m3_0_0# bga__DUM2
Xbga__M6_0 VSUBS m3_0_0# m2_0_5342# m3_0_0# m2_0_5342# bga__M6
Xbga__DUM2_6 VSUBS m3_0_0# m3_0_0# m2_4069_1802# m3_0_0# bga__DUM2
Xbga__M6_1 VSUBS m3_0_0# m2_0_5342# m2_0_5342# m3_0_0# bga__M6
Xbga__DUM2_7 VSUBS m3_0_0# m3_0_0# m3_0_0# m3_6771_2313# bga__DUM2
Xbga__M6_2 VSUBS m3_0_0# m2_0_5342# m3_0_0# m2_0_5342# bga__M6
Xbga__M6_3 VSUBS m3_0_0# m2_0_5342# m2_0_5342# m3_0_0# bga__M6
Xbga__M4_0 VSUBS bga__M4_0/w_n884_n157# m3_0_380# m2_4069_1802# m3_6771_2313# bga__M4
Xbga__M4_1 VSUBS bga__M4_1/w_n884_n157# m3_6771_2313# m2_4069_1802# m3_0_380# bga__M4
.ends

.subckt bgc_unit VSUBS m3_n1150_n1100# c1_n1050_n1000#
X0 c1_n1050_n1000# m3_n1150_n1100# sky130_fd_pr__cap_mim_m3_1 l=1e+07u w=1e+07u
.ends

.subckt bg__cap VSUBS m4_0_1061# m4_2493_12#
Xbgc_unit_1 VSUBS m4_2493_12# m4_0_1061# bgc_unit
Xbgc_unit_3 VSUBS m4_2493_12# m4_0_1061# bgc_unit
Xbgc_unit_2 VSUBS m4_2493_12# m4_0_1061# bgc_unit
Xbgc_unit_0 VSUBS m4_2493_12# m4_0_1061# bgc_unit
.ends

.subckt bandgap VSUBS m3_0_0# m4_n65_9016# m3_14333_882# m3_0_5342#
Xbg__M2_1 VSUBS m3_8602_5959# m3_14333_882# m3_0_0# m3_0_0# bg__M2
Xbg__res_0 VSUBS m2_10413_1144# m2_9497_4459# m2_9497_4459# m2_9497_4259# m3_14333_882#
+ m4_n65_9016# m4_n65_9016# m2_11672_6286# bg__res
Xbg__M1_1 VSUBS m3_8602_5959# m3_0_0# m3_0_0# m2_10413_1144# bg__M1
Xbg__M1_0 VSUBS m3_8602_5959# m2_10413_1144# m3_0_0# m3_0_0# bg__M1
Xbg__pnp_group_0 VSUBS m2_9497_4259# m4_n65_9016# m2_11672_6286# m3_0_0# bg__pnp_group
Xbg__amplifier_0 VSUBS m4_n65_9016# m3_0_0# m3_8602_5959# m2_9497_4259# m3_0_5342#
+ m2_9497_4459# bg__amplifier
Xbg__cap_0 VSUBS m3_8602_5959# m4_n65_9016# bg__cap
Xbg__M2_0 VSUBS m3_8602_5959# m3_0_0# m3_0_0# m3_14333_882# bg__M2
.ends

.subckt reg__M8 VSUBS a_n40_n162# a_n98_n136# w_n236_n284# a_40_n136#
X0 a_40_n136# a_n40_n162# a_n98_n136# w_n236_n284# sky130_fd_pr__pfet_01v8_lvt ad=2.9e+11p pd=2.58e+06u as=2.9e+11p ps=2.58e+06u w=1e+06u l=400000u
.ends

.subckt regdp__M1 VSUBS a_n158_n131# a_n100_n157# a_100_n131# w_n184_n157#
X0 a_100_n131# a_n100_n157# a_n158_n131# VSUBS sky130_fd_pr__nfet_01v8_lvt ad=2.9e+11p pd=2.58e+06u as=2.9e+11p ps=2.58e+06u w=1e+06u l=1e+06u
.ends

.subckt regdp__M2 VSUBS a_n158_n131# a_n100_n157# a_100_n131# w_n184_n157#
X0 a_100_n131# a_n100_n157# a_n158_n131# VSUBS sky130_fd_pr__nfet_01v8_lvt ad=2.9e+11p pd=2.58e+06u as=2.9e+11p ps=2.58e+06u w=1e+06u l=1e+06u
.ends

.subckt regdp__DUM VSUBS a_n158_n131# a_n100_n157# a_100_n131# w_n184_n157#
X0 a_100_n131# a_n100_n157# a_n158_n131# VSUBS sky130_fd_pr__nfet_01v8_lvt ad=2.9e+11p pd=2.58e+06u as=2.9e+11p ps=2.58e+06u w=1e+06u l=1e+06u
.ends

.subckt reg__diffpair VSUBS m2_0_898# m3_486_473# m2_0_1335# m3_1220_10# m2_0_459#
+ m1_436_322#
Xregdp__M1_0 VSUBS m3_486_473# m2_0_1335# m2_0_898# regdp__M2_3/w_n184_n157# regdp__M1
Xregdp__M1_1 VSUBS m2_0_898# m2_0_1335# m3_486_473# regdp__M2_3/w_n184_n157# regdp__M1
Xregdp__M1_2 VSUBS m3_486_473# m2_0_1335# m2_0_898# regdp__M2_7/w_n184_n157# regdp__M1
Xregdp__M1_3 VSUBS m2_0_898# m2_0_1335# m3_486_473# regdp__M2_7/w_n184_n157# regdp__M1
Xregdp__M1_4 VSUBS m3_486_473# m2_0_1335# m2_0_898# regdp__M2_7/w_n184_n157# regdp__M1
Xregdp__M1_5 VSUBS m2_0_898# m2_0_1335# m3_486_473# regdp__M2_7/w_n184_n157# regdp__M1
Xregdp__M1_6 VSUBS m2_0_898# m2_0_1335# m3_486_473# regdp__M2_3/w_n184_n157# regdp__M1
Xregdp__M1_7 VSUBS m3_486_473# m2_0_1335# m2_0_898# regdp__M2_3/w_n184_n157# regdp__M1
Xregdp__M2_0 VSUBS m3_1220_10# m2_0_459# m2_0_898# regdp__M2_3/w_n184_n157# regdp__M2
Xregdp__DUM_0 VSUBS m3_486_473# m3_486_473# m3_486_473# regdp__M2_3/w_n184_n157# regdp__DUM
Xregdp__M2_1 VSUBS m2_0_898# m2_0_459# m3_1220_10# regdp__M2_3/w_n184_n157# regdp__M2
Xregdp__DUM_1 VSUBS m3_486_473# m3_486_473# m3_486_473# regdp__M2_3/w_n184_n157# regdp__DUM
Xregdp__M2_2 VSUBS m2_0_898# m2_0_459# m3_1220_10# regdp__M2_3/w_n184_n157# regdp__M2
Xregdp__DUM_2 VSUBS m3_1220_10# m3_1220_10# m3_1220_10# regdp__M2_7/w_n184_n157# regdp__DUM
Xregdp__M2_3 VSUBS m3_1220_10# m2_0_459# m2_0_898# regdp__M2_3/w_n184_n157# regdp__M2
Xregdp__DUM_3 VSUBS m3_1220_10# m3_1220_10# m3_1220_10# regdp__M2_7/w_n184_n157# regdp__DUM
Xregdp__M2_4 VSUBS m3_1220_10# m2_0_459# m2_0_898# regdp__M2_7/w_n184_n157# regdp__M2
Xregdp__M2_5 VSUBS m2_0_898# m2_0_459# m3_1220_10# regdp__M2_7/w_n184_n157# regdp__M2
Xregdp__M2_6 VSUBS m3_1220_10# m2_0_459# m2_0_898# regdp__M2_7/w_n184_n157# regdp__M2
Xregdp__M2_7 VSUBS m2_0_898# m2_0_459# m3_1220_10# regdp__M2_7/w_n184_n157# regdp__M2
.ends

.subckt reg__M7 VSUBS a_50_n836# w_n144_n898# a_n50_n862# a_n108_n836#
X0 a_50_n836# a_n50_n862# a_n108_n836# w_n144_n898# sky130_fd_pr__pfet_01v8_lvt ad=2.32e+12p pd=1.658e+07u as=2.32e+12p ps=1.658e+07u w=8e+06u l=500000u
.ends

.subckt reg__M7_array VSUBS reg__M7_25/a_50_n836# reg__M7_15/a_50_n836# reg__M7_6/a_50_n836#
+ reg__M7_9/w_n144_n898# reg__M7_4/a_50_n836# reg__M7_24/a_50_n836# reg__M7_14/a_50_n836#
+ reg__M7_31/a_n108_n836# reg__M7_23/a_50_n836# reg__M7_13/a_50_n836# reg__M7_19/a_n50_n862#
+ reg__M7_18/a_n50_n862# reg__M7_22/a_50_n836# reg__M7_16/a_n50_n862# reg__M7_17/a_n50_n862#
+ reg__M7_5/a_50_n836# reg__M7_12/a_50_n836# reg__M7_15/a_n50_n862# reg__M7_31/a_50_n836#
+ reg__M7_14/a_n50_n862# reg__M7_21/a_50_n836# reg__M7_12/a_n50_n862# reg__M7_13/a_n50_n862#
+ reg__M7_2/a_50_n836# reg__M7_11/a_50_n836# reg__M7_11/a_n50_n862# reg__M7_30/a_50_n836#
+ reg__M7_10/a_n50_n862# reg__M7_28/a_n50_n862# reg__M7_29/a_n50_n862# reg__M7_20/a_50_n836#
+ reg__M7_8/a_n50_n862# reg__M7_9/a_n50_n862# reg__M7_27/a_n50_n862# reg__M7_1/a_50_n836#
+ reg__M7_10/a_50_n836# reg__M7_7/a_n50_n862# reg__M7_26/a_n50_n862# reg__M7_24/a_n50_n862#
+ reg__M7_25/a_n50_n862# reg__M7_5/a_n50_n862# reg__M7_6/a_n50_n862# reg__M7_23/a_n50_n862#
+ reg__M7_4/a_n50_n862# reg__M7_0/a_50_n836# reg__M7_21/a_n50_n862# reg__M7_22/a_n50_n862#
+ reg__M7_3/a_n50_n862# reg__M7_1/a_n50_n862# reg__M7_2/a_n50_n862# reg__M7_20/a_n50_n862#
+ reg__M7_19/a_50_n836# reg__M7_29/a_50_n836# reg__M7_0/a_n50_n862# reg__M7_18/a_50_n836#
+ reg__M7_28/a_50_n836# reg__M7_9/a_50_n836# reg__M7_27/a_50_n836# reg__M7_31/a_n50_n862#
+ reg__M7_17/a_50_n836# reg__M7_30/a_n50_n862# reg__M7_8/a_50_n836# reg__M7_3/a_50_n836#
+ reg__M7_26/a_50_n836# reg__M7_16/a_50_n836# reg__M7_7/a_50_n836#
Xreg__M7_31 VSUBS reg__M7_31/a_50_n836# reg__M7_9/w_n144_n898# reg__M7_31/a_n50_n862#
+ reg__M7_31/a_n108_n836# reg__M7
Xreg__M7_20 VSUBS reg__M7_20/a_50_n836# reg__M7_9/w_n144_n898# reg__M7_20/a_n50_n862#
+ reg__M7_27/a_50_n836# reg__M7
Xreg__M7_21 VSUBS reg__M7_21/a_50_n836# reg__M7_9/w_n144_n898# reg__M7_21/a_n50_n862#
+ reg__M7_1/a_50_n836# reg__M7
Xreg__M7_10 VSUBS reg__M7_10/a_50_n836# reg__M7_9/w_n144_n898# reg__M7_10/a_n50_n862#
+ reg__M7_17/a_50_n836# reg__M7
Xreg__M7_22 VSUBS reg__M7_22/a_50_n836# reg__M7_9/w_n144_n898# reg__M7_22/a_n50_n862#
+ reg__M7_2/a_50_n836# reg__M7
Xreg__M7_11 VSUBS reg__M7_11/a_50_n836# reg__M7_9/w_n144_n898# reg__M7_11/a_n50_n862#
+ reg__M7_18/a_50_n836# reg__M7
Xreg__M7_23 VSUBS reg__M7_23/a_50_n836# reg__M7_9/w_n144_n898# reg__M7_23/a_n50_n862#
+ reg__M7_3/a_50_n836# reg__M7
Xreg__M7_12 VSUBS reg__M7_12/a_50_n836# reg__M7_9/w_n144_n898# reg__M7_12/a_n50_n862#
+ reg__M7_19/a_50_n836# reg__M7
Xreg__M7_24 VSUBS reg__M7_24/a_50_n836# reg__M7_9/w_n144_n898# reg__M7_24/a_n50_n862#
+ reg__M7_4/a_50_n836# reg__M7
Xreg__M7_13 VSUBS reg__M7_13/a_50_n836# reg__M7_9/w_n144_n898# reg__M7_13/a_n50_n862#
+ reg__M7_20/a_50_n836# reg__M7
Xreg__M7_25 VSUBS reg__M7_25/a_50_n836# reg__M7_9/w_n144_n898# reg__M7_25/a_n50_n862#
+ reg__M7_5/a_50_n836# reg__M7
Xreg__M7_14 VSUBS reg__M7_14/a_50_n836# reg__M7_9/w_n144_n898# reg__M7_14/a_n50_n862#
+ reg__M7_21/a_50_n836# reg__M7
Xreg__M7_26 VSUBS reg__M7_26/a_50_n836# reg__M7_9/w_n144_n898# reg__M7_26/a_n50_n862#
+ reg__M7_6/a_50_n836# reg__M7
Xreg__M7_15 VSUBS reg__M7_15/a_50_n836# reg__M7_9/w_n144_n898# reg__M7_15/a_n50_n862#
+ reg__M7_22/a_50_n836# reg__M7
Xreg__M7_28 VSUBS reg__M7_28/a_50_n836# reg__M7_9/w_n144_n898# reg__M7_28/a_n50_n862#
+ reg__M7_29/a_50_n836# reg__M7
Xreg__M7_27 VSUBS reg__M7_27/a_50_n836# reg__M7_9/w_n144_n898# reg__M7_27/a_n50_n862#
+ reg__M7_28/a_50_n836# reg__M7
Xreg__M7_17 VSUBS reg__M7_17/a_50_n836# reg__M7_9/w_n144_n898# reg__M7_17/a_n50_n862#
+ reg__M7_24/a_50_n836# reg__M7
Xreg__M7_16 VSUBS reg__M7_16/a_50_n836# reg__M7_9/w_n144_n898# reg__M7_16/a_n50_n862#
+ reg__M7_23/a_50_n836# reg__M7
Xreg__M7_29 VSUBS reg__M7_29/a_50_n836# reg__M7_9/w_n144_n898# reg__M7_29/a_n50_n862#
+ reg__M7_30/a_50_n836# reg__M7
Xreg__M7_18 VSUBS reg__M7_18/a_50_n836# reg__M7_9/w_n144_n898# reg__M7_18/a_n50_n862#
+ reg__M7_25/a_50_n836# reg__M7
Xreg__M7_19 VSUBS reg__M7_19/a_50_n836# reg__M7_9/w_n144_n898# reg__M7_19/a_n50_n862#
+ reg__M7_26/a_50_n836# reg__M7
Xreg__M7_0 VSUBS reg__M7_0/a_50_n836# reg__M7_9/w_n144_n898# reg__M7_0/a_n50_n862#
+ reg__M7_7/a_50_n836# reg__M7
Xreg__M7_1 VSUBS reg__M7_1/a_50_n836# reg__M7_9/w_n144_n898# reg__M7_1/a_n50_n862#
+ reg__M7_8/a_50_n836# reg__M7
Xreg__M7_2 VSUBS reg__M7_2/a_50_n836# reg__M7_9/w_n144_n898# reg__M7_2/a_n50_n862#
+ reg__M7_9/a_50_n836# reg__M7
Xreg__M7_4 VSUBS reg__M7_4/a_50_n836# reg__M7_9/w_n144_n898# reg__M7_4/a_n50_n862#
+ reg__M7_11/a_50_n836# reg__M7
Xreg__M7_3 VSUBS reg__M7_3/a_50_n836# reg__M7_9/w_n144_n898# reg__M7_3/a_n50_n862#
+ reg__M7_10/a_50_n836# reg__M7
Xreg__M7_5 VSUBS reg__M7_5/a_50_n836# reg__M7_9/w_n144_n898# reg__M7_5/a_n50_n862#
+ reg__M7_12/a_50_n836# reg__M7
Xreg__M7_6 VSUBS reg__M7_6/a_50_n836# reg__M7_9/w_n144_n898# reg__M7_6/a_n50_n862#
+ reg__M7_13/a_50_n836# reg__M7
Xreg__M7_7 VSUBS reg__M7_7/a_50_n836# reg__M7_9/w_n144_n898# reg__M7_7/a_n50_n862#
+ reg__M7_14/a_50_n836# reg__M7
Xreg__M7_8 VSUBS reg__M7_8/a_50_n836# reg__M7_9/w_n144_n898# reg__M7_8/a_n50_n862#
+ reg__M7_15/a_50_n836# reg__M7
Xreg__M7_9 VSUBS reg__M7_9/a_50_n836# reg__M7_9/w_n144_n898# reg__M7_9/a_n50_n862#
+ reg__M7_16/a_50_n836# reg__M7
Xreg__M7_30 VSUBS reg__M7_30/a_50_n836# reg__M7_9/w_n144_n898# reg__M7_30/a_n50_n862#
+ reg__M7_31/a_50_n836# reg__M7
.ends

.subckt reg__R1 VSUBS a_n35_n1282# a_n35_850#
X0 a_n35_n1282# a_n35_850# VSUBS sky130_fd_pr__res_xhigh_po w=350000u l=8.5e+06u
.ends

.subckt reg__RDUM VSUBS a_n35_n1282# a_n35_850#
X0 a_n35_n1282# a_n35_850# VSUBS sky130_fd_pr__res_xhigh_po w=350000u l=8.5e+06u
.ends

.subckt reg__Rdiv VSUBS m1_949_2758# m1_n145_n183# m1_3059_2758# m1_527_2758#
Xreg__R1_0 VSUBS m1_949_90# m1_949_2758# reg__R1
Xreg__R1_2 VSUBS m1_2215_0# m1_3059_2758# reg__R1
Xreg__R1_1 VSUBS m1_n145_n183# m1_n145_n183# reg__R1
Xreg__R1_3 VSUBS m1_2637_90# m1_3059_2758# reg__R1
Xreg__R1_4 VSUBS m1_2637_90# m1_1371_2758# reg__R1
Xreg__R1_5 VSUBS m1_2215_0# m1_1793_2758# reg__R1
Xreg__R1_6 VSUBS m1_527_0# m1_1793_2758# reg__R1
Xreg__RDUM_0 VSUBS m1_n145_n183# m1_n145_n183# reg__RDUM
Xreg__R1_7 VSUBS m1_949_90# m1_1371_2758# reg__R1
Xreg__R1_8 VSUBS m1_527_0# m1_527_2758# reg__R1
.ends

.subckt regpm__M3 VSUBS a_n100_n162# a_n158_n136# a_100_n136# w_n194_n198#
X0 a_100_n136# a_n100_n162# a_n158_n136# w_n194_n198# sky130_fd_pr__pfet_01v8_lvt ad=2.9e+11p pd=2.58e+06u as=2.9e+11p ps=2.58e+06u w=1e+06u l=1e+06u
.ends

.subckt regpm__DUMP VSUBS a_n100_n162# a_n158_n136# a_100_n136# w_n194_n198#
X0 a_100_n136# a_n100_n162# a_n158_n136# w_n194_n198# sky130_fd_pr__pfet_01v8_lvt ad=2.9e+11p pd=2.58e+06u as=2.9e+11p ps=2.58e+06u w=1e+06u l=1e+06u
.ends

.subckt regpm__M4 VSUBS a_n100_n162# a_n158_n136# a_100_n136# w_n194_n198#
X0 a_100_n136# a_n100_n162# a_n158_n136# w_n194_n198# sky130_fd_pr__pfet_01v8_lvt ad=2.9e+11p pd=2.58e+06u as=2.9e+11p ps=2.58e+06u w=1e+06u l=1e+06u
.ends

.subckt reg__pmirr VSUBS w_60_17# m2_0_1012# m2_0_0#
Xregpm__M3_0 VSUBS m2_0_0# m2_0_0# w_60_17# w_60_17# regpm__M3
Xregpm__M3_1 VSUBS m2_0_0# w_60_17# m2_0_0# w_60_17# regpm__M3
Xregpm__M3_2 VSUBS regpm__M3_2/a_n100_n162# regpm__M3_2/a_n158_n136# regpm__M3_2/a_100_n136#
+ w_60_17# regpm__M3
Xregpm__M3_3 VSUBS m2_0_0# regpm__M3_3/a_n158_n136# m2_0_0# w_60_17# regpm__M3
Xregpm__DUMP_0 VSUBS m2_0_0# m2_0_0# regpm__DUMP_0/a_100_n136# w_60_17# regpm__DUMP
Xregpm__DUMP_1 VSUBS m2_0_0# m2_0_1012# regpm__DUMP_1/a_100_n136# w_60_17# regpm__DUMP
Xregpm__DUMP_2 VSUBS m2_0_0# m2_0_1012# m2_0_1012# w_60_17# regpm__DUMP
Xregpm__DUMP_3 VSUBS m2_0_0# m2_0_0# m2_0_0# w_60_17# regpm__DUMP
Xregpm__M4_0 VSUBS m2_0_0# w_60_17# m2_0_1012# w_60_17# regpm__M4
Xregpm__M4_2 VSUBS m2_0_0# regpm__M4_2/a_n158_n136# m2_0_1012# w_60_17# regpm__M4
Xregpm__M4_1 VSUBS m2_0_0# m2_0_1012# w_60_17# w_60_17# regpm__M4
Xregpm__M4_3 VSUBS regpm__M4_3/a_n100_n162# regpm__M4_3/a_n158_n136# regpm__M4_3/a_100_n136#
+ w_60_17# regpm__M4
.ends

.subckt reg__C1 VSUBS m3_n650_n600# c1_n550_n500#
X0 c1_n550_n500# m3_n650_n600# sky130_fd_pr__cap_mim_m3_1 l=5e+06u w=5e+06u
.ends

.subckt regnm__M5 VSUBS a_n158_n100# a_n100_n126# a_100_n100# w_n184_n126#
X0 a_100_n100# a_n100_n126# a_n158_n100# VSUBS sky130_fd_pr__nfet_01v8_lvt ad=2.9e+11p pd=2.58e+06u as=2.9e+11p ps=2.58e+06u w=1e+06u l=1e+06u
.ends

.subckt regnm__DUM_2 VSUBS a_n158_n131# a_n100_n157# a_100_n131# w_n184_n157#
X0 a_100_n131# a_n100_n157# a_n158_n131# VSUBS sky130_fd_pr__nfet_01v8_lvt ad=2.9e+11p pd=2.58e+06u as=2.9e+11p ps=2.58e+06u w=1e+06u l=1e+06u
.ends

.subckt regnm__M5_gate VSUBS a_n158_n131# a_n100_n157# a_100_n131# w_n184_n157#
X0 a_100_n131# a_n100_n157# a_n158_n131# VSUBS sky130_fd_pr__nfet_01v8_lvt ad=2.9e+11p pd=2.58e+06u as=2.9e+11p ps=2.58e+06u w=1e+06u l=1e+06u
.ends

.subckt regnm__M6 VSUBS a_n158_n100# a_n100_n126# a_100_n100# w_n184_n126#
X0 a_100_n100# a_n100_n126# a_n158_n100# VSUBS sky130_fd_pr__nfet_01v8_lvt ad=2.9e+11p pd=2.58e+06u as=2.9e+11p ps=2.58e+06u w=1e+06u l=1e+06u
.ends

.subckt regnm__M6_gate VSUBS a_n158_n131# a_n100_n157# a_100_n131# w_n184_n157#
X0 a_100_n131# a_n100_n157# a_n158_n131# VSUBS sky130_fd_pr__nfet_01v8_lvt ad=2.9e+11p pd=2.58e+06u as=2.9e+11p ps=2.58e+06u w=1e+06u l=1e+06u
.ends

.subckt regnm__M9 VSUBS w_n226_n269# a_n98_n131# a_n40_n157# a_40_n131#
X0 a_40_n131# a_n40_n157# a_n98_n131# VSUBS sky130_fd_pr__nfet_01v8_lvt ad=2.9e+11p pd=2.58e+06u as=2.9e+11p ps=2.58e+06u w=1e+06u l=400000u
.ends

.subckt regnm__DUM_1 VSUBS a_n158_n100# a_n100_n126# a_100_n100# w_n184_n126#
X0 a_100_n100# a_n100_n126# a_n158_n100# VSUBS sky130_fd_pr__nfet_01v8_lvt ad=2.9e+11p pd=2.58e+06u as=2.9e+11p ps=2.58e+06u w=1e+06u l=1e+06u
.ends

.subckt reg__nmirr VSUBS a_822_233# m1_189_1220# m2_109_42# m2_753_609#
Xregnm__M5_0 VSUBS m2_109_42# a_822_233# m2_753_609# regnm__M6_1/w_n184_n126# regnm__M5
Xregnm__M5_1 VSUBS m2_753_609# a_822_233# m2_109_42# regnm__M6_0/w_n184_n126# regnm__M5
Xregnm__DUM_2_0 VSUBS m2_753_609# a_822_233# m2_753_609# regnm__DUM_2_1/w_n184_n157#
+ regnm__DUM_2
Xregnm__DUM_2_1 VSUBS a_822_233# a_822_233# a_822_233# regnm__DUM_2_1/w_n184_n157#
+ regnm__DUM_2